/batch
/config,noeldb,1     ! force off writing results to database
*get,_wallstrt,active,,time,wall
! ANSYS input file written by Workbench version 2021 R2
! File used for geometry attach: D:\GuoHB\MyFiles\Code\PyAnsysWorkbench\examples\geometry\geo.scdoc
/title,wbnew--Static Structural (A5)
! ****** Begin Custom Load Command Snippet ******
/COM, ACT Extensions:
/COM,     LSDYNA, 2021.1
/COM,     5f463412-bd3e-484b-87e7-cbc0a665e474, wbex
/COM,
! ****** End   Custom Load Command Snippet ******
*DIM,_wb_ProjectScratch_dir,string,248
_wb_ProjectScratch_dir(1) = 'C:\Users\GuoHB\AppData\Local\Temp\WB_GuoHB_23488_2\_ProjectScratch\ScrA3B7\'
*DIM,_wb_SolverFiles_dir,string,248
_wb_SolverFiles_dir(1) = 'C:\Users\GuoHB\AppData\Local\Temp\WB_GuoHB_23488_2\wbnew_files\dp0\SYS\MECH\'
*DIM,_wb_userfiles_dir,string,248
_wb_userfiles_dir(1) = 'C:\Users\GuoHB\AppData\Local\Temp\WB_GuoHB_23488_2\wbnew_files\user_files\'
/com,--- Data in consistent NMM units. See Solving Units in the help system for more information.
/units,MPA
/nopr
/wb,file,start              !  signify a WB generated input file
/prep7
! Turn off shape checking because checks already performed inside WB mesher.
! See help system for more information.
SHPP,OFF,,NOWARN
/nolist
etcon,set             ! allow ANSYS to choose best KEYOP's for 180x elements, resets any applicable keyopt to MAPDL defaults
/com,*********** Nodes for the whole assembly ***********
nblock,3,,933
(1i9,3e20.9e3)
        1     1.900000000E+02     1.666666667E+01     1.000000000E+01
        2     1.900000000E+02     8.333333333E+00     1.000000000E+01
        3     1.800000000E+02     1.666666667E+01     1.000000000E+01
        4     1.800000000E+02     8.333333333E+00     1.000000000E+01
        5     1.700000000E+02     1.666666667E+01     1.000000000E+01
        6     1.700000000E+02     8.333333333E+00     1.000000000E+01
        7     1.600000000E+02     1.666666667E+01     1.000000000E+01
        8     1.600000000E+02     8.333333333E+00     1.000000000E+01
        9     1.500000000E+02     1.666666667E+01     1.000000000E+01
       10     1.500000000E+02     8.333333333E+00     1.000000000E+01
       11     1.400000000E+02     1.666666667E+01     1.000000000E+01
       12     1.400000000E+02     8.333333333E+00     1.000000000E+01
       13     1.300000000E+02     1.666666667E+01     1.000000000E+01
       14     1.300000000E+02     8.333333333E+00     1.000000000E+01
       15     1.200000000E+02     1.666666667E+01     1.000000000E+01
       16     1.200000000E+02     8.333333333E+00     1.000000000E+01
       17     1.100000000E+02     1.666666667E+01     1.000000000E+01
       18     1.100000000E+02     8.333333333E+00     1.000000000E+01
       19     1.000000000E+02     1.666666667E+01     1.000000000E+01
       20     1.000000000E+02     8.333333333E+00     1.000000000E+01
! ... 830 like lines cut
/wb,elem,start            !  set before creation of elements
/com,*********** Elements for Body 1 "geo\__" ***********
et,1,186
keyo,1,2,1          ! set full integration on SOLID186
eblock,19,solid,,120
(19i9)
        1        1        1        1        0        0        0        0       20        0        1        1      209      247      249       76      246      248      251
      257      788      844      258      521      842      845      522      255      787      843      847
        1        1        1        1        0        0        0        0       20        0        2        1      249      247      209       77      116      117      118
      258      844      788      257      525      623      625      526      256      624      626      628
        1        1        1        1        0        0        0        0       20        0        3        1        3      210      209       76       74      245      246
      254      268      786      257      516      517      841      521      255      266      790      787
        1        1        1        1        0        0        0        0       20        0        4        1      209      210        3       77      118      119       79
      257      786      268      254      526      627      532      524      256      628      630      267
        1        1        1        1        0        0        0        0       20        0        5        3        5      211      210       74       72      244      245
      265      277      789      268      511      512      840      517      266      275      792      790
        1        1        1        1        0        0        0        0       20        0        6        3      210      211        5       79      119      120       81
      268      789      277      265      532      629      537      531      267      630      632      276
        1        1        1        1        0        0        0        0       20        0        7        5        7      212      211       72       70      243      244
      274      286      791      277      506      507      839      512      275      284      794      792
        1        1        1        1        0        0        0        0       20        0        8        5      211      212        7       81      120      121       83
      277      791      286      274      537      631      542      536      276      632      634      285
        1        1        1        1        0        0        0        0       20        0        9        7        9      213      212       70       68      242      243
      283      295      793      286      501      502      838      507      284      293      796      794
        1        1        1        1        0        0        0        0       20        0       10        7      212      213        9       83      121      122       85
      286      793      295      283      542      633      547      541      285      634      636      294
! ... 221 like lines cut
!Material Id = {4CD9E1DC-7262-4E18-BDB9-12285F970589}
/wb,elem,end               !  done creating elements
/com,*********** Send User Defined Coordinate System(s) ***********
csys,0
toffst,273.15,  ! Temperature offset from absolute zero
/com,*********** Set Reference Temperature ***********
tref,22.
/wb,mat,start              !  starting to send materials
/com,*********** Send Materials ***********
MP,DENS,1,7.85e-09,	! tonne mm^-3
MP,EX,1,209000,	! tonne s^-2 mm^-1
MP,NUXY,1,0.3,
MP,UVID,1,fbf2ce65-7c77-4446-b098-07a15dd3aff7

/wb,mat,end                !  done sending materials
!************************* Model Summary ********************
!geo\__,	Steel,	matid,	1
!************************* End Model Summary ********************
! get the diagonal of the bounding box. Needed later for other things
*get,_xmin,node,,mnloc,x
*get,_ymin,node,,mnloc,y
*get,_zmin,node,,mnloc,z
*get,_xmax,node,,mxloc,x
*get,_ymax,node,,mxloc,y
*get,_zmax,node,,mxloc,z
_ASMDIAG=(_xmax-_xmin)*(_xmax-_xmin)+(_ymax-_ymin)*(_ymax-_ymin)+(_zmax-_zmin)*(_zmax-_zmin)
_ASMDIAG=SQRT(_ASMDIAG)
/wb,contact,start          !  starting to send contact
/wb,contact,end            !  done creating contacts
/com,*********** Send Named Selection as Element Component ***********
esel,s,type,,1
cm,NS_BEAMBODY,elem
esel,all
/com,*********** Send Named Selection as Node Component ***********
CMBLOCK,NS_FIXSUP,NODE,       29
(8i10)
       137       138       139       140       201       202       203       204
       205       206       207       208       665       666       667       668
       669       670       672       774       775       776       777       778
       779       780       781       782       783
/com,*********** Send Named Selection as Node Component ***********
CMBLOCK,NS_PRESS,NODE,      227
(8i10)
        77        78        79        80        81        82        83        84
        85        86        87        88        89        90        91        92
        93        94        95        96        97        98        99       100
       101       102       103       104       105       106       107       108
       109       110       111       112       113       114       115       116
       117       118       119       120       121       122       123       124
       125       126       127       128       129       130       131       132
       133       134       135       136       137       138       139       140
       141       142       143       144       145       146       147       148
       149       150       151       152       153       154       155       156
       157       158       159       160       523       524       525       526
       527       528       529       530       531       532       533       534
       535       536       537       538       539       540       541       542
       543       544       545       546       547       548       549       550
       551       552       553       554       555       556       557       558
       559       560       561       562       563       564       565       566
       567       568       569       570       571       572       573       574
       575       576       577       578       579       580       581       582
       583       584       585       586       587       588       589       590
       591       592       593       594       595       596       597       598
! ... 9 like lines cut
/golist
/wb,load,start             !  starting to send loads
/com,*********** Fixed Supports ***********
CMBLOCK,_FIXEDSU,NODE,       29
(8i10)
       137       138       139       140       201       202       203       204
       205       206       207       208       665       666       667       668
       669       670       672       774       775       776       777       778
       779       780       781       782       783
cmsel,s,_FIXEDSU
d,all,all
nsel,all
/com,*********** Define Pressure Using Surface Effect Elements "Pressure" ***********
et,2,154
eblock,10,,,60
(15i9)
      333        2        2        2        0      118       77      116      117      526      525      623      625
      334        2        2        2        0      119       79       77      118      532      524      526      627
      335        2        2        2        0      120       81       79      119      537      531      532      629
      336        2        2        2        0      121       83       81      120      542      536      537      631
      337        2        2        2        0      122       85       83      121      547      541      542      633
      338        2        2        2        0      123       87       85      122      552      546      547      635
      339        2        2        2        0      124       89       87      123      557      551      552      637
      340        2        2        2        0      125       91       89      124      562      556      557      639
      341        2        2        2        0      126       93       91      125      567      561      562      641
      342        2        2        2        0      127       95       93      126      572      566      567      643
      343        2        2        2        0      128       97       95      127      577      571      572      645
      344        2        2        2        0      129       99       97      128      582      576      577      647
      345        2        2        2        0      130      101       99      129      587      581      582      649
      346        2        2        2        0      131      103      101      130      592      586      587      651
      347        2        2        2        0      132      105      103      131      597      591      592      653
      348        2        2        2        0      133      107      105      132      602      596      597      655
      349        2        2        2        0      134      109      107      133      607      601      602      657
      350        2        2        2        0      135      111      109      134      612      606      607      659
      351        2        2        2        0      136      113      111      135      616      611      612      661
      352        2        2        2        0      137      138      113      136      665      617      616      663
! ... 41 like lines cut
esel,s,type,,2
keyop,2,7,0                ! Use deformed area for application of load
esel,all
esel,all
/gst,on,on
fini
*get,_numnode,node,0,count
*get,_numelem,elem,0,count
*get, _MAXELEMNUM, elem, 0, NUM, MAX
*get, _MAXNODENUM, node, 0, NUM, MAX
*get, _MAXELEMTYPE, etyp, 0, NUM, MAX
*get, _MAXREALCONST, real, 0, NUM, MAX
/go
/wb,load,end               !  done creating loads
/com,--- Number of total nodes = %_numnode%
/com,--- Number of contact elements = 60
/com,--- Number of spring elements = 0
/com,--- Number of bearing elements = 0
/com,--- Number of solid elements = 120
/com,--- Number of condensed parts = 0
/com,--- Number of total elements = %_numelem%
*get,_wallbsol,active,,time,wall
/com,****************************************************************************
/com,*************************    SOLUTION       ********************************
/com,****************************************************************************
/solu
antype,0                   ! static analysis
_thickRatio=  0     ! Ratio of thick parts in the model
eqsl,sparse,,,,,1
cntr,print,1               ! print out contact info and also make no initial contact an error
dmpoption,emat,no             ! Don't combine emat file for DANSYS
dmpoption,esav,no             ! Don't combine esav file for DANSYS
nldiag,cont,iter           ! print out contact info each equilibrium iteration
rescontrol,,none                 ! Do not keep any restart files
/com,****************************************************
/com,******************* SOLVE FOR LS 1 OF 1 ****************
esel,s,type,,2
nsle
sf,all,pres,0.5
nsel,all
esel,all
esel,all
/nopr
/gopr
nsub,1,1,1
time,1.
outres,erase
outres,all,none
outres,nsol,all,
outres,rsol,all
outres,eangl,all
outres,etmp,all
outres,veng,all
outres,strs,all,
outres,epel,all,
outres,eppl,all,
outres,cont,all,
! *********** WB SOLVE COMMAND ***********
! check interactive state
*get,ANSINTER_,active,,int
*if,ANSINTER_,ne,0,then
/eof
*endif
solve
/com *************** Write FE CONNECTORS ********* 
CEWRITE,file,ce,,INTE
/com,****************************************************
/com,*************** FINISHED SOLVE FOR LS 1 *************
*get,_wallasol,active,,time,wall
/nopr
*get,_numnode,node,0,count
*get,_numelem,elem,0,count
*get, _MAXELEMNUM, elem, 0, NUM, MAX
*get, _MAXNODENUM, node, 0, NUM, MAX,,,INTERNAL
*get, _MAXELEMTYPE, etyp, 0, NUM, MAX
*get, _MAXREALCONST, real, 0, NUM, MAX
/gopr
/post1
xmlo,ENCODING,ISO-8859-1
xmlo,parm
/xml,parm,xml
fini
/gopr
*get,_walldone,active,,time,wall
_preptime=(_wallbsol-_wallstrt)*3600
_solvtime=(_wallasol-_wallbsol)*3600
_posttime=(_walldone-_wallasol)*3600
_totaltim=(_walldone-_wallstrt)*3600
*get,_dlbratio,active,0,solu,dlbr
*get,_combtime,active,0,solu,comb
*get,_ssmode,active,0,solu,ssmm
*get,_ndofs,active,0,solu,ndof
/com,--- Total number of nodes = %_numnode%
/com,--- Total number of elements = %_numelem%
/com,--- Element load balance ratio = %_dlbratio%
/com,--- Time to combine distributed files = %_combtime%
/com,--- Sparse memory mode = %_ssmode%
/com,--- Number of DOF = %_ndofs%
/wb,file,end               ! done with WB generated input
